/*--------------------------------*- C++ -*----------------------------------*\
| =========                 |                                                 |
| \\      /  F ield         | OpenFOAM: The Open Source CFD Toolbox           |
|  \\    /   O peration     | Version:  v2312                                 |
|   \\  /    A nd           | Website:  www.openfoam.com                      |
|    \\/     M anipulation  |                                                 |
\*---------------------------------------------------------------------------*/
FoamFile
{
    version     2.0;
    format      ascii;
    class       volScalarField;
    object      nut;
}
// * * * * * * * * * * * * * * * * * * * * * * * * * * * * * * * * * * * * * //

dimensions      [0 2 -1 0 0 0 0];

internalField   uniform 0;

boundaryField
{
      overset
    {
	type overset;
	value $internalField;
    }
    inlet
    {
        type            calculated;
        value $internalField;
    }

    outlet
    {
        type            calculated;
        value $internalField;
    }

        flap
    {
        type            nutUSpaldingWallFunction;
        value           uniform 0;
    }
	airfoil
    {
        type            nutUSpaldingWallFunction;
        value           uniform 0;
    }
defaultFaces
    {
        type            empty;
   }


    front
    {
        type            empty;
    }
    back
    {
        type            empty;
    }

   }


// ************************************************************************* //
