/*--------------------------------*- C++ -*----------------------------------*\
| =========                 |                                                 |
| \\      /  F ield         | OpenFOAM: The Open Source CFD Toolbox           |
|  \\    /   O peration     | Version:  v2312                                 |
|   \\  /    A nd           | Website:  www.openfoam.com                      |
|    \\/     M anipulation  |                                                 |
\*---------------------------------------------------------------------------*/
FoamFile
{
    version     2.0;
    format      ascii;
    class       volScalarField;
    object      omega;
}
// * * * * * * * * * * * * * * * * * * * * * * * * * * * * * * * * * * * * * //
dimensions      [0 0 -1 0 0 0 0];

internalField   uniform 22.41283114646608;

boundaryField
{
      overset
    {
	type overset;
	value $internalField;
    }
    inlet
    {
        type            fixedValue;
        value $internalField;
    }

    outlet
    {
        type            zeroGradient;

    }

 
       flap
    {
        type            omegaWallFunction;
        value $internalField;
    }
    airfoil
    {
        type            omegaWallFunction;
        value $internalField;
    }

    

    front
    {
        type            empty;
    }
    back
    {
        type            empty;
    }

}


// ************************************************************************* //
